docs/ieee8500_v42_joint_pcc_reselection/overlays/MV_900dec7fd8f1_750KVA.dss
! ENGINEERING_SCENARIO_NOT_FIELD_VERIFIED; original DSS unchanged
new Transformer.high_mv_sta01 phases=3 windings=2 buses=[m1142839.1.2.3 high_mv_sta01_lv.1.2.3.0] conns=[delta wye] kvs=[12.47 .48] kvas=[750 750] %rs=[.5 .5] xhl=5.6623758264530624 %noloadloss=0.2 %imag=0.5 rneut=0 normhkva=750 emerghkva=750
new Transformer.high_mv_sta02 phases=3 windings=2 buses=[l3160872.1.2.3 high_mv_sta02_lv.1.2.3.0] conns=[delta wye] kvs=[12.47 .48] kvas=[750 750] %rs=[.5 .5] xhl=5.6623758264530624 %noloadloss=0.2 %imag=0.5 rneut=0 normhkva=750 emerghkva=750
new Transformer.high_mv_sta03 phases=3 windings=2 buses=[m1069497.1.2.3 high_mv_sta03_lv.1.2.3.0] conns=[delta wye] kvs=[12.47 .48] kvas=[750 750] %rs=[.5 .5] xhl=5.6623758264530624 %noloadloss=0.2 %imag=0.5 rneut=0 normhkva=750 emerghkva=750
new Transformer.high_mv_sta04 phases=3 windings=2 buses=[l2730163.1.2.3 high_mv_sta04_lv.1.2.3.0] conns=[delta wye] kvs=[12.47 .48] kvas=[750 750] %rs=[.5 .5] xhl=5.6623758264530624 %noloadloss=0.2 %imag=0.5 rneut=0 normhkva=750 emerghkva=750
new Transformer.high_mv_sta05 phases=3 windings=2 buses=[m1125902.1.2.3 high_mv_sta05_lv.1.2.3.0] conns=[delta wye] kvs=[12.47 .48] kvas=[750 750] %rs=[.5 .5] xhl=5.6623758264530624 %noloadloss=0.2 %imag=0.5 rneut=0 normhkva=750 emerghkva=750
new Transformer.high_mv_sta06 phases=3 windings=2 buses=[m1108298.1.2.3 high_mv_sta06_lv.1.2.3.0] conns=[delta wye] kvs=[12.47 .48] kvas=[750 750] %rs=[.5 .5] xhl=5.6623758264530624 %noloadloss=0.2 %imag=0.5 rneut=0 normhkva=750 emerghkva=750
new Transformer.high_mv_sta07 phases=3 windings=2 buses=[l2804249.1.2.3 high_mv_sta07_lv.1.2.3.0] conns=[delta wye] kvs=[12.47 .48] kvas=[750 750] %rs=[.5 .5] xhl=5.6623758264530624 %noloadloss=0.2 %imag=0.5 rneut=0 normhkva=750 emerghkva=750
new Transformer.high_mv_sta08 phases=3 windings=2 buses=[m1069438.1.2.3 high_mv_sta08_lv.1.2.3.0] conns=[delta wye] kvs=[12.47 .48] kvas=[750 750] %rs=[.5 .5] xhl=5.6623758264530624 %noloadloss=0.2 %imag=0.5 rneut=0 normhkva=750 emerghkva=750
new Transformer.high_mv_sta09 phases=3 windings=2 buses=[m1047513.1.2.3 high_mv_sta09_lv.1.2.3.0] conns=[delta wye] kvs=[12.47 .48] kvas=[750 750] %rs=[.5 .5] xhl=5.6623758264530624 %noloadloss=0.2 %imag=0.5 rneut=0 normhkva=750 emerghkva=750
new Transformer.high_mv_sta10 phases=3 windings=2 buses=[m1026830.1.2.3 high_mv_sta10_lv.1.2.3.0] conns=[delta wye] kvs=[12.47 .48] kvas=[750 750] %rs=[.5 .5] xhl=5.6623758264530624 %noloadloss=0.2 %imag=0.5 rneut=0 normhkva=750 emerghkva=750
new Transformer.high_mv_sta11 phases=3 windings=2 buses=[l3216345.1.2.3 high_mv_sta11_lv.1.2.3.0] conns=[delta wye] kvs=[12.47 .48] kvas=[750 750] %rs=[.5 .5] xhl=5.6623758264530624 %noloadloss=0.2 %imag=0.5 rneut=0 normhkva=750 emerghkva=750
new Transformer.high_mv_sta12 phases=3 windings=2 buses=[e182733.1.2.3 high_mv_sta12_lv.1.2.3.0] conns=[delta wye] kvs=[12.47 .48] kvas=[750 750] %rs=[.5 .5] xhl=5.6623758264530624 %noloadloss=0.2 %imag=0.5 rneut=0 normhkva=750 emerghkva=750
